#======================================================================

# CRYSTAL DATA

#----------------------------------------------------------------------

data_VESTA_phase_1


_chemical_name_common                  'POSCAR file written by OVITO Basic 3.4'
_cell_length_a                         26.00000
_cell_length_b                         26.00000
_cell_length_c                         26.00000
_cell_angle_alpha                      90
_cell_angle_beta                       90
_cell_angle_gamma                      90
_space_group_name_H-M_alt              'P 1'
_space_group_IT_number                 1

loop_
_space_group_symop_operation_xyz
   'x, y, z'

loop_
   _atom_site_label
   _atom_site_occupancy
   _atom_site_fract_x
   _atom_site_fract_y
   _atom_site_fract_z
   _atom_site_adp_type
   _atom_site_B_iso_or_equiv
   _atom_site_type_symbol
   O1         1.0     0.000048      0.999751      0.999900     Biso  1.000000 O
   O2         1.0     0.500047      0.999752      0.999899     Biso  1.000000 O
   O3         1.0     0.000047      0.499752      0.999899     Biso  1.000000 O
   O4         1.0     0.500048      0.499751      0.999900     Biso  1.000000 O
   O5         1.0     0.000047      0.999752      0.499899     Biso  1.000000 O
   O6         1.0     0.500048      0.999751      0.499900     Biso  1.000000 O
   O7         1.0     0.000048      0.499751      0.499900     Biso  1.000000 O
   O8         1.0     0.500047      0.499752      0.499899     Biso  1.000000 O
   O9         1.0     0.030782      0.883127      0.030627     Biso  1.000000 O
   O10        1.0     0.969328      0.883140      0.969176     Biso  1.000000 O
   O11        1.0     0.969319      0.969034      0.883289     Biso  1.000000 O
   O12        1.0     0.030757      0.030483      0.883287     Biso  1.000000 O
   O13        1.0     0.030770      0.116370      0.969170     Biso  1.000000 O
   O14        1.0     0.969317      0.116372      0.030613     Biso  1.000000 O
   O15        1.0     0.116666      0.969017      0.030627     Biso  1.000000 O
   O16        1.0     0.116654      0.030473      0.969180     Biso  1.000000 O
   O17        1.0     0.883433      0.030489      0.030609     Biso  1.000000 O
   O18        1.0     0.883434      0.969029      0.969179     Biso  1.000000 O
   O19        1.0     0.969326      0.030479      0.116504     Biso  1.000000 O
   O20        1.0     0.030769      0.969019      0.116516     Biso  1.000000 O
   O21        1.0     0.530780      0.883133      0.969181     Biso  1.000000 O
   O22        1.0     0.469327      0.883133      0.030623     Biso  1.000000 O
   O23        1.0     0.383440      0.969027      0.030620     Biso  1.000000 O
   O24        1.0     0.383428      0.030486      0.969175     Biso  1.000000 O
   O25        1.0     0.469314      0.116377      0.969169     Biso  1.000000 O
   O26        1.0     0.530769      0.116364      0.030621     Biso  1.000000 O
   O27        1.0     0.530767      0.969028      0.883294     Biso  1.000000 O
   O28        1.0     0.469320      0.030484      0.883284     Biso  1.000000 O
   O29        1.0     0.530771      0.030471      0.116511     Biso  1.000000 O
   O30        1.0     0.469337      0.969017      0.116511     Biso  1.000000 O
   O31        1.0     0.616660      0.030475      0.030624     Biso  1.000000 O
   O32        1.0     0.616662      0.969019      0.969189     Biso  1.000000 O
   O33        1.0     0.030780      0.383133      0.969181     Biso  1.000000 O
   O34        1.0     0.969327      0.383133      0.030623     Biso  1.000000 O
   O35        1.0     0.883440      0.469027      0.030620     Biso  1.000000 O
   O36        1.0     0.883428      0.530486      0.969175     Biso  1.000000 O
   O37        1.0     0.969314      0.616377      0.969169     Biso  1.000000 O
   O38        1.0     0.030769      0.616364      0.030621     Biso  1.000000 O
   O39        1.0     0.030767      0.469028      0.883294     Biso  1.000000 O
   O40        1.0     0.969320      0.530483      0.883284     Biso  1.000000 O
   O41        1.0     0.030771      0.530471      0.116511     Biso  1.000000 O
   O42        1.0     0.969337      0.469017      0.116511     Biso  1.000000 O
   O43        1.0     0.116660      0.530475      0.030624     Biso  1.000000 O
   O44        1.0     0.116662      0.469019      0.969189     Biso  1.000000 O
   O45        1.0     0.530782      0.383127      0.030627     Biso  1.000000 O
   O46        1.0     0.469328      0.383140      0.969176     Biso  1.000000 O
   O47        1.0     0.469319      0.469034      0.883289     Biso  1.000000 O
   O48        1.0     0.530757      0.530483      0.883287     Biso  1.000000 O
   O49        1.0     0.530770      0.616370      0.969170     Biso  1.000000 O
   O50        1.0     0.469317      0.616372      0.030613     Biso  1.000000 O
   O51        1.0     0.616666      0.469017      0.030627     Biso  1.000000 O
   O52        1.0     0.616654      0.530473      0.969180     Biso  1.000000 O
   O53        1.0     0.383433      0.530489      0.030609     Biso  1.000000 O
   O54        1.0     0.383434      0.469029      0.969179     Biso  1.000000 O
   O55        1.0     0.469326      0.530479      0.116504     Biso  1.000000 O
   O56        1.0     0.530769      0.469019      0.116516     Biso  1.000000 O
   O57        1.0     0.030780      0.883133      0.469181     Biso  1.000000 O
   O58        1.0     0.969327      0.883133      0.530623     Biso  1.000000 O
   O59        1.0     0.883440      0.969027      0.530620     Biso  1.000000 O
   O60        1.0     0.883428      0.030486      0.469175     Biso  1.000000 O
   O61        1.0     0.969314      0.116377      0.469169     Biso  1.000000 O
   O62        1.0     0.030769      0.116364      0.530621     Biso  1.000000 O
   O63        1.0     0.030767      0.969028      0.383294     Biso  1.000000 O
   O64        1.0     0.969320      0.030484      0.383284     Biso  1.000000 O
   O65        1.0     0.030771      0.030471      0.616511     Biso  1.000000 O
   O66        1.0     0.969337      0.969017      0.616511     Biso  1.000000 O
   O67        1.0     0.116660      0.030475      0.530624     Biso  1.000000 O
   O68        1.0     0.116662      0.969019      0.469189     Biso  1.000000 O
   O69        1.0     0.530782      0.883127      0.530627     Biso  1.000000 O
   O70        1.0     0.469328      0.883140      0.469176     Biso  1.000000 O
   O71        1.0     0.469319      0.969034      0.383288     Biso  1.000000 O
   O72        1.0     0.530757      0.030483      0.383287     Biso  1.000000 O
   O73        1.0     0.530770      0.116370      0.469170     Biso  1.000000 O
   O74        1.0     0.469317      0.116372      0.530613     Biso  1.000000 O
   O75        1.0     0.616666      0.969017      0.530627     Biso  1.000000 O
   O76        1.0     0.616654      0.030473      0.469180     Biso  1.000000 O
   O77        1.0     0.383433      0.030489      0.530609     Biso  1.000000 O
   O78        1.0     0.383434      0.969029      0.469179     Biso  1.000000 O
   O79        1.0     0.469326      0.030479      0.616504     Biso  1.000000 O
   O80        1.0     0.530769      0.969019      0.616516     Biso  1.000000 O
   O81        1.0     0.030782      0.383127      0.530627     Biso  1.000000 O
   O82        1.0     0.969328      0.383140      0.469176     Biso  1.000000 O
   O83        1.0     0.969319      0.469034      0.383288     Biso  1.000000 O
   O84        1.0     0.030757      0.530483      0.383287     Biso  1.000000 O
   O85        1.0     0.030770      0.616370      0.469170     Biso  1.000000 O
   O86        1.0     0.969317      0.616372      0.530613     Biso  1.000000 O
   O87        1.0     0.116666      0.469017      0.530627     Biso  1.000000 O
   O88        1.0     0.116654      0.530473      0.469180     Biso  1.000000 O
   O89        1.0     0.883433      0.530489      0.530609     Biso  1.000000 O
   O90        1.0     0.883434      0.469029      0.469179     Biso  1.000000 O
   O91        1.0     0.969326      0.530479      0.616504     Biso  1.000000 O
   O92        1.0     0.030769      0.469019      0.616516     Biso  1.000000 O
   O93        1.0     0.530780      0.383133      0.469181     Biso  1.000000 O
   O94        1.0     0.469327      0.383133      0.530623     Biso  1.000000 O
   O95        1.0     0.383440      0.469027      0.530620     Biso  1.000000 O
   O96        1.0     0.383428      0.530486      0.469175     Biso  1.000000 O
   O97        1.0     0.469314      0.616377      0.469169     Biso  1.000000 O
   O98        1.0     0.530769      0.616364      0.530621     Biso  1.000000 O
   O99        1.0     0.530767      0.469028      0.383294     Biso  1.000000 O
   O100       1.0     0.469320      0.530484      0.383284     Biso  1.000000 O
   O101       1.0     0.530771      0.530471      0.616511     Biso  1.000000 O
   O102       1.0     0.469337      0.469017      0.616511     Biso  1.000000 O
   O103       1.0     0.616660      0.530475      0.530624     Biso  1.000000 O
   O104       1.0     0.616662      0.469019      0.469189     Biso  1.000000 O
   Zn1        1.0     0.956477      0.043329      0.043458     Biso  1.000000 Zn
   Zn2        1.0     0.043621      0.956170      0.043472     Biso  1.000000 Zn
   Zn3        1.0     0.043609      0.043325      0.956332     Biso  1.000000 Zn
   Zn4        1.0     0.956479      0.956184      0.956334     Biso  1.000000 Zn
   Zn5        1.0     0.543614      0.043320      0.043465     Biso  1.000000 Zn
   Zn6        1.0     0.543618      0.956177      0.956340     Biso  1.000000 Zn
   Zn7        1.0     0.456472      0.043334      0.956328     Biso  1.000000 Zn
   Zn8        1.0     0.456486      0.956176      0.043466     Biso  1.000000 Zn
   Zn9        1.0     0.043614      0.543320      0.043465     Biso  1.000000 Zn
   Zn10       1.0     0.043618      0.456177      0.956340     Biso  1.000000 Zn
   Zn11       1.0     0.956472      0.543334      0.956328     Biso  1.000000 Zn
   Zn12       1.0     0.956486      0.456176      0.043466     Biso  1.000000 Zn
   Zn13       1.0     0.456477      0.543329      0.043458     Biso  1.000000 Zn
   Zn14       1.0     0.543621      0.456170      0.043472     Biso  1.000000 Zn
   Zn15       1.0     0.543609      0.543325      0.956332     Biso  1.000000 Zn
   Zn16       1.0     0.456479      0.456184      0.956334     Biso  1.000000 Zn
   Zn17       1.0     0.043614      0.043320      0.543465     Biso  1.000000 Zn
   Zn18       1.0     0.043618      0.956177      0.456340     Biso  1.000000 Zn
   Zn19       1.0     0.956472      0.043334      0.456328     Biso  1.000000 Zn
   Zn20       1.0     0.956486      0.956176      0.543466     Biso  1.000000 Zn
   Zn21       1.0     0.456477      0.043329      0.543458     Biso  1.000000 Zn
   Zn22       1.0     0.543621      0.956170      0.543472     Biso  1.000000 Zn
   Zn23       1.0     0.543609      0.043325      0.456332     Biso  1.000000 Zn
   Zn24       1.0     0.456479      0.956184      0.456334     Biso  1.000000 Zn
   Zn25       1.0     0.956477      0.543329      0.543458     Biso  1.000000 Zn
   Zn26       1.0     0.043621      0.456170      0.543472     Biso  1.000000 Zn
   Zn27       1.0     0.043609      0.543325      0.456332     Biso  1.000000 Zn
   Zn28       1.0     0.956479      0.456184      0.456334     Biso  1.000000 Zn
   Zn29       1.0     0.543614      0.543320      0.543465     Biso  1.000000 Zn
   Zn30       1.0     0.543618      0.456177      0.456340     Biso  1.000000 Zn
   Zn31       1.0     0.456472      0.543334      0.456328     Biso  1.000000 Zn
   Zn32       1.0     0.456486      0.456176      0.543466     Biso  1.000000 Zn
   C1         1.0     0.000055      0.860892      0.999901     Biso  1.000000 C
   C2         1.0     0.000039      0.999758      0.861046     Biso  1.000000 C
   C3         1.0     0.000044      0.138612      0.999892     Biso  1.000000 C
   C4         1.0     0.138902      0.999745      0.999904     Biso  1.000000 C
   C5         1.0     0.861192      0.999758      0.999895     Biso  1.000000 C
   C6         1.0     0.000047      0.999748      0.138752     Biso  1.000000 C
   C7         1.0     0.500053      0.860891      0.999901     Biso  1.000000 C
   C8         1.0     0.361192      0.999756      0.999897     Biso  1.000000 C
   C9         1.0     0.500042      0.138612      0.999894     Biso  1.000000 C
   C10        1.0     0.500043      0.999755      0.861047     Biso  1.000000 C
   C11        1.0     0.500053      0.999745      0.138752     Biso  1.000000 C
   C12        1.0     0.638903      0.999748      0.999906     Biso  1.000000 C
   C13        1.0     0.000053      0.360891      0.999901     Biso  1.000000 C
   C14        1.0     0.861192      0.499756      0.999897     Biso  1.000000 C
   C15        1.0     0.000042      0.638612      0.999894     Biso  1.000000 C
   C16        1.0     0.000043      0.499755      0.861047     Biso  1.000000 C
   C17        1.0     0.000053      0.499745      0.138752     Biso  1.000000 C
   C18        1.0     0.138903      0.499748      0.999906     Biso  1.000000 C
   C19        1.0     0.500055      0.360892      0.999901     Biso  1.000000 C
   C20        1.0     0.500039      0.499758      0.861046     Biso  1.000000 C
   C21        1.0     0.500044      0.638612      0.999892     Biso  1.000000 C
   C22        1.0     0.638902      0.499745      0.999904     Biso  1.000000 C
   C23        1.0     0.361192      0.499758      0.999895     Biso  1.000000 C
   C24        1.0     0.500047      0.499748      0.138752     Biso  1.000000 C
   C25        1.0     0.000053      0.860891      0.499901     Biso  1.000000 C
   C26        1.0     0.861192      0.999756      0.499897     Biso  1.000000 C
   C27        1.0     0.000042      0.138612      0.499894     Biso  1.000000 C
   C28        1.0     0.000043      0.999755      0.361047     Biso  1.000000 C
   C29        1.0     0.000053      0.999745      0.638752     Biso  1.000000 C
   C30        1.0     0.138903      0.999748      0.499906     Biso  1.000000 C
   C31        1.0     0.500055      0.860892      0.499901     Biso  1.000000 C
   C32        1.0     0.500039      0.999758      0.361046     Biso  1.000000 C
   C33        1.0     0.500044      0.138612      0.499892     Biso  1.000000 C
   C34        1.0     0.638902      0.999745      0.499904     Biso  1.000000 C
   C35        1.0     0.361192      0.999758      0.499895     Biso  1.000000 C
   C36        1.0     0.500047      0.999748      0.638752     Biso  1.000000 C
   C37        1.0     0.000055      0.360892      0.499901     Biso  1.000000 C
   C38        1.0     0.000039      0.499758      0.361046     Biso  1.000000 C
   C39        1.0     0.000044      0.638612      0.499892     Biso  1.000000 C
   C40        1.0     0.138902      0.499745      0.499904     Biso  1.000000 C
   C41        1.0     0.861192      0.499758      0.499895     Biso  1.000000 C
   C42        1.0     0.000047      0.499748      0.638752     Biso  1.000000 C
   C43        1.0     0.500053      0.360891      0.499901     Biso  1.000000 C
   C44        1.0     0.361192      0.499756      0.499897     Biso  1.000000 C
   C45        1.0     0.500042      0.638612      0.499894     Biso  1.000000 C
   C46        1.0     0.500043      0.499755      0.361047     Biso  1.000000 C
   C47        1.0     0.500053      0.499745      0.638752     Biso  1.000000 C
   C48        1.0     0.638903      0.499748      0.499906     Biso  1.000000 C
   C49        1.0     0.033080      0.222911      0.966870     Biso  1.000000 C
   C50        1.0     0.033083      0.276592      0.966873     Biso  1.000000 C
   C51        1.0     0.967015      0.276592      0.032919     Biso  1.000000 C
   C52        1.0     0.967013      0.222912      0.032916     Biso  1.000000 C
   C53        1.0     0.967020      0.032786      0.223049     Biso  1.000000 C
   C54        1.0     0.967018      0.032788      0.276735     Biso  1.000000 C
   C55        1.0     0.033067      0.966715      0.276750     Biso  1.000000 C
   C56        1.0     0.033068      0.966713      0.223064     Biso  1.000000 C
   C57        1.0     0.776888      0.032785      0.032924     Biso  1.000000 C
   C58        1.0     0.723204      0.032782      0.032926     Biso  1.000000 C
   C59        1.0     0.723206      0.966722      0.966878     Biso  1.000000 C
   C60        1.0     0.776890      0.966725      0.966875     Biso  1.000000 C
   C61        1.0     0.467013      0.222922      0.966868     Biso  1.000000 C
   C62        1.0     0.467017      0.276603      0.966870     Biso  1.000000 C
   C63        1.0     0.533087      0.276582      0.032924     Biso  1.000000 C
   C64        1.0     0.533083      0.222901      0.032922     Biso  1.000000 C
   C65        1.0     0.533067      0.032784      0.223056     Biso  1.000000 C
   C66        1.0     0.533063      0.032787      0.276742     Biso  1.000000 C
   C67        1.0     0.467023      0.966720      0.276743     Biso  1.000000 C
   C68        1.0     0.467027      0.966717      0.223057     Biso  1.000000 C
   C69        1.0     0.276879      0.032782      0.966869     Biso  1.000000 C
   C70        1.0     0.223195      0.032779      0.966871     Biso  1.000000 C
   C71        1.0     0.223215      0.966718      0.032932     Biso  1.000000 C
   C72        1.0     0.276899      0.966721      0.032930     Biso  1.000000 C
   C73        1.0     0.967013      0.722922      0.966868     Biso  1.000000 C
   C74        1.0     0.967017      0.776603      0.966870     Biso  1.000000 C
   C75        1.0     0.033087      0.776582      0.032924     Biso  1.000000 C
   C76        1.0     0.033083      0.722901      0.032922     Biso  1.000000 C
   C77        1.0     0.033067      0.532784      0.223056     Biso  1.000000 C
   C78        1.0     0.033063      0.532787      0.276742     Biso  1.000000 C
   C79        1.0     0.967023      0.466720      0.276743     Biso  1.000000 C
   C80        1.0     0.967027      0.466717      0.223057     Biso  1.000000 C
   C81        1.0     0.776879      0.532782      0.966869     Biso  1.000000 C
   C82        1.0     0.723195      0.532779      0.966871     Biso  1.000000 C
   C83        1.0     0.723215      0.466718      0.032932     Biso  1.000000 C
   C84        1.0     0.776899      0.466721      0.032930     Biso  1.000000 C
   C85        1.0     0.533080      0.722911      0.966870     Biso  1.000000 C
   C86        1.0     0.533083      0.776592      0.966873     Biso  1.000000 C
   C87        1.0     0.467015      0.776592      0.032919     Biso  1.000000 C
   C88        1.0     0.467013      0.722912      0.032916     Biso  1.000000 C
   C89        1.0     0.467020      0.532786      0.223049     Biso  1.000000 C
   C90        1.0     0.467018      0.532788      0.276735     Biso  1.000000 C
   C91        1.0     0.533067      0.466715      0.276750     Biso  1.000000 C
   C92        1.0     0.533068      0.466713      0.223064     Biso  1.000000 C
   C93        1.0     0.276888      0.532785      0.032924     Biso  1.000000 C
   C94        1.0     0.223204      0.532782      0.032926     Biso  1.000000 C
   C95        1.0     0.223206      0.466722      0.966878     Biso  1.000000 C
   C96        1.0     0.276890      0.466725      0.966875     Biso  1.000000 C
   C97        1.0     0.967013      0.222922      0.466868     Biso  1.000000 C
   C98        1.0     0.967017      0.276603      0.466870     Biso  1.000000 C
   C99        1.0     0.033087      0.276582      0.532924     Biso  1.000000 C
   C100       1.0     0.033083      0.222901      0.532922     Biso  1.000000 C
   C101       1.0     0.033067      0.032784      0.723056     Biso  1.000000 C
   C102       1.0     0.033063      0.032787      0.776742     Biso  1.000000 C
   C103       1.0     0.967023      0.966720      0.776743     Biso  1.000000 C
   C104       1.0     0.967027      0.966717      0.723057     Biso  1.000000 C
   C105       1.0     0.776879      0.032782      0.466869     Biso  1.000000 C
   C106       1.0     0.723195      0.032779      0.466871     Biso  1.000000 C
   C107       1.0     0.723215      0.966718      0.532932     Biso  1.000000 C
   C108       1.0     0.776899      0.966721      0.532930     Biso  1.000000 C
   C109       1.0     0.533080      0.222911      0.466870     Biso  1.000000 C
   C110       1.0     0.533083      0.276591      0.466873     Biso  1.000000 C
   C111       1.0     0.467015      0.276592      0.532919     Biso  1.000000 C
   C112       1.0     0.467013      0.222912      0.532916     Biso  1.000000 C
   C113       1.0     0.467020      0.032786      0.723049     Biso  1.000000 C
   C114       1.0     0.467018      0.032788      0.776735     Biso  1.000000 C
   C115       1.0     0.533067      0.966715      0.776750     Biso  1.000000 C
   C116       1.0     0.533068      0.966713      0.723064     Biso  1.000000 C
   C117       1.0     0.276888      0.032785      0.532924     Biso  1.000000 C
   C118       1.0     0.223204      0.032782      0.532926     Biso  1.000000 C
   C119       1.0     0.223206      0.966722      0.466878     Biso  1.000000 C
   C120       1.0     0.276890      0.966725      0.466875     Biso  1.000000 C
   C121       1.0     0.033080      0.722911      0.466870     Biso  1.000000 C
   C122       1.0     0.033083      0.776591      0.466873     Biso  1.000000 C
   C123       1.0     0.967015      0.776592      0.532919     Biso  1.000000 C
   C124       1.0     0.967013      0.722912      0.532916     Biso  1.000000 C
   C125       1.0     0.967020      0.532786      0.723049     Biso  1.000000 C
   C126       1.0     0.967018      0.532788      0.776735     Biso  1.000000 C
   C127       1.0     0.033067      0.466715      0.776750     Biso  1.000000 C
   C128       1.0     0.033068      0.466713      0.723064     Biso  1.000000 C
   C129       1.0     0.776888      0.532785      0.532924     Biso  1.000000 C
   C130       1.0     0.723204      0.532782      0.532926     Biso  1.000000 C
   C131       1.0     0.723206      0.466722      0.466878     Biso  1.000000 C
   C132       1.0     0.776890      0.466725      0.466875     Biso  1.000000 C
   C133       1.0     0.467013      0.722922      0.466868     Biso  1.000000 C
   C134       1.0     0.467017      0.776603      0.466870     Biso  1.000000 C
   C135       1.0     0.533087      0.776582      0.532924     Biso  1.000000 C
   C136       1.0     0.533083      0.722901      0.532922     Biso  1.000000 C
   C137       1.0     0.533067      0.532784      0.723056     Biso  1.000000 C
   C138       1.0     0.533063      0.532787      0.776742     Biso  1.000000 C
   C139       1.0     0.467023      0.466720      0.776743     Biso  1.000000 C
   C140       1.0     0.467027      0.466717      0.723057     Biso  1.000000 C
   C141       1.0     0.276879      0.532782      0.466869     Biso  1.000000 C
   C142       1.0     0.223195      0.532779      0.466871     Biso  1.000000 C
   C143       1.0     0.223215      0.466718      0.532932     Biso  1.000000 C
   C144       1.0     0.276899      0.466721      0.532930     Biso  1.000000 C
   C145       1.0     0.000050      0.303405      0.999898     Biso  1.000000 C
   C146       1.0     0.000046      0.196099      0.999893     Biso  1.000000 C
   C147       1.0     0.000043      0.999753      0.303556     Biso  1.000000 C
   C148       1.0     0.000045      0.999749      0.196243     Biso  1.000000 C
   C149       1.0     0.696392      0.999751      0.999903     Biso  1.000000 C
   C150       1.0     0.803703      0.999756      0.999898     Biso  1.000000 C
   C151       1.0     0.500053      0.303405      0.999899     Biso  1.000000 C
   C152       1.0     0.500046      0.196098      0.999894     Biso  1.000000 C
   C153       1.0     0.500042      0.999755      0.303556     Biso  1.000000 C
   C154       1.0     0.500049      0.999749      0.196243     Biso  1.000000 C
   C155       1.0     0.196391      0.999747      0.999903     Biso  1.000000 C
   C156       1.0     0.303703      0.999753      0.999898     Biso  1.000000 C
   C157       1.0     0.000053      0.803405      0.999899     Biso  1.000000 C
   C158       1.0     0.000046      0.696098      0.999894     Biso  1.000000 C
   C159       1.0     0.000042      0.499755      0.303556     Biso  1.000000 C
   C160       1.0     0.000049      0.499749      0.196243     Biso  1.000000 C
   C161       1.0     0.696391      0.499747      0.999903     Biso  1.000000 C
   C162       1.0     0.803703      0.499753      0.999898     Biso  1.000000 C
   C163       1.0     0.500050      0.803405      0.999898     Biso  1.000000 C
   C164       1.0     0.500046      0.696099      0.999893     Biso  1.000000 C
   C165       1.0     0.500043      0.499753      0.303556     Biso  1.000000 C
   C166       1.0     0.500045      0.499749      0.196243     Biso  1.000000 C
   C167       1.0     0.196392      0.499751      0.999903     Biso  1.000000 C
   C168       1.0     0.303703      0.499756      0.999898     Biso  1.000000 C
   C169       1.0     0.000053      0.303405      0.499899     Biso  1.000000 C
   C170       1.0     0.000046      0.196098      0.499894     Biso  1.000000 C
   C171       1.0     0.000042      0.999755      0.803556     Biso  1.000000 C
   C172       1.0     0.000049      0.999749      0.696243     Biso  1.000000 C
   C173       1.0     0.696391      0.999747      0.499903     Biso  1.000000 C
   C174       1.0     0.803703      0.999753      0.499898     Biso  1.000000 C
   C175       1.0     0.500050      0.303405      0.499898     Biso  1.000000 C
   C176       1.0     0.500046      0.196099      0.499893     Biso  1.000000 C
   C177       1.0     0.500043      0.999753      0.803556     Biso  1.000000 C
   C178       1.0     0.500045      0.999749      0.696243     Biso  1.000000 C
   C179       1.0     0.196392      0.999751      0.499903     Biso  1.000000 C
   C180       1.0     0.303703      0.999756      0.499898     Biso  1.000000 C
   C181       1.0     0.000050      0.803405      0.499898     Biso  1.000000 C
   C182       1.0     0.000046      0.696099      0.499893     Biso  1.000000 C
   C183       1.0     0.000043      0.499753      0.803556     Biso  1.000000 C
   C184       1.0     0.000045      0.499749      0.696243     Biso  1.000000 C
   C185       1.0     0.696392      0.499751      0.499903     Biso  1.000000 C
   C186       1.0     0.803703      0.499756      0.499898     Biso  1.000000 C
   C187       1.0     0.500053      0.803405      0.499899     Biso  1.000000 C
   C188       1.0     0.500046      0.696098      0.499894     Biso  1.000000 C
   C189       1.0     0.500042      0.499755      0.803556     Biso  1.000000 C
   C190       1.0     0.500049      0.499749      0.696243     Biso  1.000000 C
   C191       1.0     0.196391      0.499747      0.499903     Biso  1.000000 C
   C192       1.0     0.303703      0.499753      0.499898     Biso  1.000000 C
   H1         1.0     0.058962      0.297299      0.941004     Biso  1.000000 H
   H2         1.0     0.941138      0.297301      0.058790     Biso  1.000000 H
   H3         1.0     0.941133      0.202205      0.058785     Biso  1.000000 H
   H4         1.0     0.058957      0.202203      0.940999     Biso  1.000000 H
   H5         1.0     0.941148      0.058668      0.297439     Biso  1.000000 H
   H6         1.0     0.058937      0.940836      0.297467     Biso  1.000000 H
   H7         1.0     0.058939      0.940832      0.202360     Biso  1.000000 H
   H8         1.0     0.941150      0.058665      0.202332     Biso  1.000000 H
   H9         1.0     0.702493      0.058656      0.058798     Biso  1.000000 H
   H10        1.0     0.702498      0.940847      0.941008     Biso  1.000000 H
   H11        1.0     0.797601      0.940851      0.941004     Biso  1.000000 H
   H12        1.0     0.797597      0.058661      0.058793     Biso  1.000000 H
   H13        1.0     0.441140      0.297319      0.940997     Biso  1.000000 H
   H14        1.0     0.558968      0.297281      0.058798     Biso  1.000000 H
   H15        1.0     0.558962      0.202185      0.058794     Biso  1.000000 H
   H16        1.0     0.441133      0.202223      0.940994     Biso  1.000000 H
   H17        1.0     0.558928      0.058665      0.297452     Biso  1.000000 H
   H18        1.0     0.441155      0.940844      0.297454     Biso  1.000000 H
   H19        1.0     0.441162      0.940839      0.202346     Biso  1.000000 H
   H20        1.0     0.558935      0.058659      0.202345     Biso  1.000000 H
   H21        1.0     0.202478      0.058653      0.940996     Biso  1.000000 H
   H22        1.0     0.202513      0.940841      0.058808     Biso  1.000000 H
   H23        1.0     0.297616      0.940847      0.058804     Biso  1.000000 H
   H24        1.0     0.297581      0.058659      0.940993     Biso  1.000000 H
   H25        1.0     0.941140      0.797319      0.940997     Biso  1.000000 H
   H26        1.0     0.058968      0.797281      0.058798     Biso  1.000000 H
   H27        1.0     0.058962      0.702185      0.058794     Biso  1.000000 H
   H28        1.0     0.941133      0.702223      0.940994     Biso  1.000000 H
   H29        1.0     0.058928      0.558665      0.297452     Biso  1.000000 H
   H30        1.0     0.941155      0.440844      0.297454     Biso  1.000000 H
   H31        1.0     0.941162      0.440839      0.202346     Biso  1.000000 H
   H32        1.0     0.058935      0.558659      0.202345     Biso  1.000000 H
   H33        1.0     0.702478      0.558653      0.940996     Biso  1.000000 H
   H34        1.0     0.702513      0.440841      0.058808     Biso  1.000000 H
   H35        1.0     0.797616      0.440847      0.058804     Biso  1.000000 H
   H36        1.0     0.797581      0.558659      0.940993     Biso  1.000000 H
   H37        1.0     0.558962      0.797299      0.941004     Biso  1.000000 H
   H38        1.0     0.441138      0.797301      0.058790     Biso  1.000000 H
   H39        1.0     0.441133      0.702205      0.058785     Biso  1.000000 H
   H40        1.0     0.558957      0.702203      0.940999     Biso  1.000000 H
   H41        1.0     0.441148      0.558668      0.297439     Biso  1.000000 H
   H42        1.0     0.558937      0.440836      0.297467     Biso  1.000000 H
   H43        1.0     0.558939      0.440832      0.202360     Biso  1.000000 H
   H44        1.0     0.441150      0.558665      0.202332     Biso  1.000000 H
   H45        1.0     0.202493      0.558656      0.058798     Biso  1.000000 H
   H46        1.0     0.202498      0.440846      0.941008     Biso  1.000000 H
   H47        1.0     0.297601      0.440851      0.941004     Biso  1.000000 H
   H48        1.0     0.297597      0.558661      0.058793     Biso  1.000000 H
   H49        1.0     0.941140      0.297319      0.440997     Biso  1.000000 H
   H50        1.0     0.058968      0.297281      0.558798     Biso  1.000000 H
   H51        1.0     0.058962      0.202185      0.558794     Biso  1.000000 H
   H52        1.0     0.941133      0.202223      0.440994     Biso  1.000000 H
   H53        1.0     0.058928      0.058665      0.797452     Biso  1.000000 H
   H54        1.0     0.941155      0.940844      0.797454     Biso  1.000000 H
   H55        1.0     0.941162      0.940839      0.702346     Biso  1.000000 H
   H56        1.0     0.058935      0.058659      0.702345     Biso  1.000000 H
   H57        1.0     0.702478      0.058653      0.440996     Biso  1.000000 H
   H58        1.0     0.702513      0.940841      0.558808     Biso  1.000000 H
   H59        1.0     0.797616      0.940847      0.558804     Biso  1.000000 H
   H60        1.0     0.797581      0.058659      0.440993     Biso  1.000000 H
   H61        1.0     0.558962      0.297299      0.441004     Biso  1.000000 H
   H62        1.0     0.441138      0.297301      0.558790     Biso  1.000000 H
   H63        1.0     0.441133      0.202205      0.558785     Biso  1.000000 H
   H64        1.0     0.558957      0.202203      0.440999     Biso  1.000000 H
   H65        1.0     0.441148      0.058668      0.797439     Biso  1.000000 H
   H66        1.0     0.558937      0.940836      0.797467     Biso  1.000000 H
   H67        1.0     0.558939      0.940832      0.702360     Biso  1.000000 H
   H68        1.0     0.441150      0.058665      0.702332     Biso  1.000000 H
   H69        1.0     0.202493      0.058656      0.558798     Biso  1.000000 H
   H70        1.0     0.202498      0.940846      0.441008     Biso  1.000000 H
   H71        1.0     0.297601      0.940851      0.441004     Biso  1.000000 H
   H72        1.0     0.297597      0.058661      0.558793     Biso  1.000000 H
   H73        1.0     0.058962      0.797299      0.441004     Biso  1.000000 H
   H74        1.0     0.941138      0.797301      0.558790     Biso  1.000000 H
   H75        1.0     0.941133      0.702205      0.558785     Biso  1.000000 H
   H76        1.0     0.058957      0.702203      0.440999     Biso  1.000000 H
   H77        1.0     0.941148      0.558668      0.797439     Biso  1.000000 H
   H78        1.0     0.058937      0.440836      0.797467     Biso  1.000000 H
   H79        1.0     0.058939      0.440832      0.702360     Biso  1.000000 H
   H80        1.0     0.941150      0.558665      0.702332     Biso  1.000000 H
   H81        1.0     0.702493      0.558656      0.558798     Biso  1.000000 H
   H82        1.0     0.702498      0.440846      0.441008     Biso  1.000000 H
   H83        1.0     0.797601      0.440851      0.441004     Biso  1.000000 H
   H84        1.0     0.797597      0.558661      0.558793     Biso  1.000000 H
   H85        1.0     0.441140      0.797319      0.440997     Biso  1.000000 H
   H86        1.0     0.558968      0.797281      0.558798     Biso  1.000000 H
   H87        1.0     0.558962      0.702185      0.558794     Biso  1.000000 H
   H88        1.0     0.441133      0.702223      0.440994     Biso  1.000000 H
   H89        1.0     0.558928      0.558665      0.797452     Biso  1.000000 H
   H90        1.0     0.441155      0.440844      0.797454     Biso  1.000000 H
   H91        1.0     0.441162      0.440839      0.702346     Biso  1.000000 H
   H92        1.0     0.558935      0.558659      0.702345     Biso  1.000000 H
   H93        1.0     0.202478      0.558653      0.440996     Biso  1.000000 H
   H94        1.0     0.202513      0.440841      0.558808     Biso  1.000000 H
   H95        1.0     0.297616      0.440847      0.558804     Biso  1.000000 H
   H96        1.0     0.297581      0.558659      0.440993     Biso  1.000000 H
